/*--------------------------------*- C++ -*----------------------------------*\
| solids4foam: solid mechanics and fluid-solid interaction simulations        |
| Version:     v2.3                                                           |
| Web:         https://solids4foam.github.io                                  |
| Disclaimer:  This offering is not approved or endorsed by OpenCFD Limited,  |
|              producer and distributor of the OpenFOAM software via          |
|              www.openfoam.com, and owner of the OPENFOAM® and OpenCFD®      |
|              trade marks.                                                   |
\*---------------------------------------------------------------------------*/
FoamFile
{
    version     2.0;
    format      ascii;
    class       dictionary;
    object      blockMeshDict;
}
// * * * * * * * * * * * * * * * * * * * * * * * * * * * * * * * * * * * * * //

scale 1;

vertices
(
    // z = 0
    (0.00 0.000 0.00) // 0
    (1.20 0.000 0.00) // 1
    (1.24 0.000 0.00) // 2
    (2.50 0.000 0.00) // 3

    (0.00 0.010 0.00) // 4
    (1.20 0.010 0.00) // 5
    (1.24 0.010 0.00) // 6
    (2.50 0.010 0.00) // 7

    (0.00 0.410 0.00) // 8
    (1.20 0.410 0.00) // 9
    (1.24 0.410 0.00) // 10
    (2.50 0.410 0.00) // 11

    (0.00 1.200 0.00) // 12
    (1.20 1.200 0.00) // 13
    (1.24 1.200 0.00) // 14
    (2.50 1.200 0.00) // 15

    // z = 0.01
    (0.00 0.000 0.01) // 16
    (1.20 0.000 0.01) // 17
    (1.24 0.000 0.01) // 18
    (2.50 0.000 0.01) // 19

    (0.00 0.010 0.01) // 20
    (1.20 0.010 0.01) // 21
    (1.24 0.010 0.01) // 22
    (2.50 0.010 0.01) // 23

    (0.00 0.410 0.01) // 24
    (1.20 0.410 0.01) // 25
    (1.24 0.410 0.01) // 26
    (2.50 0.410 0.01) // 27

    (0.00 1.200 0.01) // 28
    (1.20 1.200 0.01) // 29
    (1.24 1.200 0.01) // 30
    (2.50 1.200 0.01) // 31
);

blocks
(
    // left column: x = 0.00 ~ 1.20
    // bottom thin layer: y = 0.000 ~ 0.010
    hex (0 1 5 4 16 17 21 20)      (120 20 1)   simpleGrading (1 1 1)

    // left middle water/gate-height region: y = 0.010 ~ 0.410
    hex (4 5 9 8 20 21 25 24)      (120 120 1) simpleGrading (1 1 1)

    // left upper air region: y = 0.410 ~ 1.200
    hex (8 9 13 12 24 25 29 28)    (120 120 1) simpleGrading (1 1 1)

    // under-gate gap: x = 1.20 ~ 1.24, y = 0.000 ~ 0.010
    hex (1 2 6 5 17 18 22 21)      (12 20 1)    simpleGrading (1 1 1)

    // above-gate region: x = 1.20 ~ 1.24, y = 0.410 ~ 1.200
    hex (9 10 14 13 25 26 30 29)   (12 120 1)  simpleGrading (1 1 1)

    // right column: x = 1.24 ~ 2.50
    // bottom thin layer: y = 0.000 ~ 0.010
    hex (2 3 7 6 18 19 23 22)      (126 20 1)   simpleGrading (1 1 1)

    // right middle region: y = 0.010 ~ 0.410
    hex (6 7 11 10 22 23 27 26)    (126 120 1) simpleGrading (1 1 1)

    // right upper region: y = 0.410 ~ 1.200
    hex (10 11 15 14 26 27 31 30)  (126 120 1) simpleGrading (1 1 1)
);

edges
(
);

boundary
(
    leftWall
    {
        type wall;
        faces
        (
            (0 16 20 4)
            (4 20 24 8)
            (8 24 28 12)
        );
    }

    rightOutlet
    {
        type patch;
        faces
        (
            (3 7 23 19)
            (7 11 27 23)
            (11 15 31 27)
        );
    }

    bottomWall
    {
        type wall;
        faces
        (
            (0 1 17 16)
            (1 2 18 17)
            (2 3 19 18)
        );
    }

    topAtmosphere
    {
        type patch;
        faces
        (
            (12 28 29 13)
            (13 29 30 14)
            (14 30 31 15)
        );
    }

    interface
    {
        type wall;
        faces
        (
            // gate left side
            (5 21 25 9)

            // gate right side
            (6 10 26 22)

            // gate bottom side
            (5 6 22 21)
        );
    }

    fluidGateTop
    {
        type wall;
        faces
        (
            (9 25 26 10)
        );
    }

    frontAndBack
    {
        type empty;
        faces
        (
            // z = 0
            (0 4 5 1)
            (4 8 9 5)
            (8 12 13 9)
            (1 5 6 2)
            (9 13 14 10)
            (2 6 7 3)
            (6 10 11 7)
            (10 14 15 11)

            // z = 0.01
            (16 17 21 20)
            (20 21 25 24)
            (24 25 29 28)
            (17 18 22 21)
            (25 26 30 29)
            (18 19 23 22)
            (22 23 27 26)
            (26 27 31 30)
        );
    }
);

mergePatchPairs
(
);

// ************************************************************************* //
