/*--------------------------------*- C++ -*----------------------------------*\
| =========                 |                                                 |
| \\      /  F ield         | OpenFOAM: The Open Source CFD Toolbox           |
|  \\    /   O peration     | Version:  2512                                  |
|   \\  /    A nd           | Website:  www.openfoam.com                      |
|    \\/     M anipulation  |                                                 |
\*---------------------------------------------------------------------------*/
FoamFile
{
    version     2.0;
    format      ascii;
    arch        "LSB;label=32;scalar=64";
    class       polyBoundaryMesh;
    location    "constant/fluid/polyMesh";
    object      boundary;
}
// * * * * * * * * * * * * * * * * * * * * * * * * * * * * * * * * * * * * * //

7
(
    leftWall
    {
        type            wall;
        inGroups        1(wall);
        nFaces          162;
        startFace       80512;
    }
    rightOutlet
    {
        type            patch;
        nFaces          162;
        startFace       80674;
    }
    bottomWall
    {
        type            wall;
        inGroups        1(wall);
        nFaces          254;
        startFace       80836;
    }
    topAtmosphere
    {
        type            patch;
        nFaces          254;
        startFace       81090;
    }
    interface
    {
        type            wall;
        inGroups        1(wall);
        nFaces          168;
        startFace       81344;
    }
    fluidGateTop
    {
        type            wall;
        inGroups        1(wall);
        nFaces          8;
        startFace       81512;
    }
    frontAndBack
    {
        type            empty;
        inGroups        1(empty);
        nFaces          81016;
        startFace       81520;
    }
)

// ************************************************************************* //
