/*--------------------------------*- C++ -*----------------------------------*\
| solids4foam: solid mechanics and fluid-solid interaction simulations        |
| Version:     v2.3                                                           |
| Web:         https://solids4foam.github.io                                  |
| Disclaimer:  This offering is not approved or endorsed by OpenCFD Limited,  |
|              producer and distributor of the OpenFOAM software via          |
|              www.openfoam.com, and owner of the OPENFOAM® and OpenCFD®      |
|              trade marks.                                                   |
\*---------------------------------------------------------------------------*/
FoamFile
{
    version     2.0;
    format      ascii;
    class       dictionary;
    object      blockMeshDict;
}
// * * * * * * * * * * * * * * * * * * * * * * * * * * * * * * * * * * * * * //
scale 1;

vertices
(
    (1.20 0.010 0.00) // 0
    (1.24 0.010 0.00) // 1
    (1.24 0.410 0.00) // 2
    (1.20 0.410 0.00) // 3

    (1.20 0.010 0.01) // 4
    (1.24 0.010 0.01) // 5
    (1.24 0.410 0.01) // 6
    (1.20 0.410 0.01) // 7
);

blocks
(
    hex (0 1 2 3 4 5 6 7) (8 80 1) simpleGrading (1 1 1)
);

edges
(
);

boundary
(
    interface
    {
        type patch;
        faces
        (
            // gate left side
            (0 4 7 3)

            // gate right side
            (1 2 6 5)

            // gate bottom side
            (0 1 5 4)
        );
    }

    gateTop
    {
        type patch;
        faces
        (
            (3 7 6 2)
        );
    }

    solidFrontAndBack
    {
        type empty;
        faces
        (
            (0 3 2 1)
            (4 5 6 7)
        );
    }
);

mergePatchPairs
(
);

// ************************************************************************* //
