/*--------------------------------*- C++ -*----------------------------------*\
| =========                 |                                                 |
| \\      /  F ield         | OpenFOAM: The Open Source CFD Toolbox           |
|  \\    /   O peration     | Version:  2512                                  |
|   \\  /    A nd           | Website:  www.openfoam.com                      |
|    \\/     M anipulation  |                                                 |
\*---------------------------------------------------------------------------*/
FoamFile
{
    version     2.0;
    format      ascii;
    arch        "LSB;label=32;scalar=64";
    class       polyBoundaryMesh;
    location    "constant/solid/polyMesh";
    object      boundary;
}
// * * * * * * * * * * * * * * * * * * * * * * * * * * * * * * * * * * * * * //

3
(
    interface
    {
        type            patch;
        nFaces          168;
        startFace       1192;
    }
    gateTop
    {
        type            patch;
        nFaces          8;
        startFace       1360;
    }
    solidFrontAndBack
    {
        type            empty;
        inGroups        1(empty);
        nFaces          1280;
        startFace       1368;
    }
)

// ************************************************************************* //
